test/data/three_phase/ieee_four_bus_delta_delta_transformer/result.csv
# result.csv run at 2000-01-01 00:00:00 EST on 13 powerflow objects (not all are nodes)
node_name,voltA_real,voltA_imag,voltB_real,voltB_imag,voltC_real,voltC_imag
node1,7199.558000,0.000000,-3599.779000,-6235.000000,-3599.779000,6235.000000
node2,7111.045205,-35.333264,-3604.262203,-6153.020956,-3518.751568,6195.253340
node3,2249.264310,-138.541108,-1250.769101,-1882.799579,-1002.487787,2023.642278
load4,1917.607293,-270.934678,-1267.567641,-1575.624494,-698.878389,1874.711735
